<?xml version="1.0" encoding="UTF-8"?>

<!-- generated on 2023-07-05 11:21:48 by Eclipse SUMO netedit Version 1.11.0
<configuration xmlns:xsi="http://www.w3.org/2001/XMLSchema-instance" xsi:noNamespaceSchemaLocation="http://sumo.dlr.de/xsd/netconvertConfiguration.xsd">

    <input>
        <sumo-net-file value="D:\SeaDrive\石佳\我的资料库\W%20orking\01%20Multi-lane%20merge%20IEEE%20TIV\02%20Coding\Sumo\config\ramp.net.xml"/>
    </input>

    <output>
        <output-file value="D:\SeaDrive\石佳\我的资料库\W%20orking\01%20Multi-lane%20merge%20IEEE%20TIV\02%20Coding\Sumo\config\ramp.net.xml"/>
    </output>

    <processing>
        <geometry.min-radius.fix.railways value="false"/>
        <geometry.max-grade.fix value="false"/>
        <offset.disable-normalization value="true"/>
        <lefthand value="false"/>
    </processing>

    <junctions>
        <no-turnarounds value="true"/>
        <junctions.corner-detail value="5"/>
        <junctions.limit-turn-speed value="30"/>
        <rectangular-lane-cut value="false"/>
    </junctions>

    <pedestrian>
        <walkingareas value="false"/>
    </pedestrian>

    <report>
        <aggregate-warnings value="5"/>
    </report>

</configuration>
-->

<net version="1.9" junctionCornerDetail="5" limitTurnSpeed="30.00" xmlns:xsi="http://www.w3.org/2001/XMLSchema-instance" xsi:noNamespaceSchemaLocation="http://sumo.dlr.de/xsd/net_file.xsd">

    <location netOffset="0.00,0.00" convBoundary="-1000.00,-400.00,300.00,0.00" origBoundary="-10000000000.00,-10000000000.00,10000000000.00,10000000000.00" projParameter="!"/>

    <edge id=":J3_0" function="internal">
        <lane id=":J3_0_0" index="0" speed="15.00" length="0.10" width="5.00" shape="-128.75,-77.16 -128.75,-77.17"/>
    </edge>
    <edge id=":J4_0" function="internal">
        <lane id=":J4_0_0" index="0" speed="15.00" length="0.10" width="5.00" shape="-431.75,-252.17 -431.75,-252.16"/>
    </edge>
    <edge id=":gneJ5_0" function="internal">
        <lane id=":gneJ5_0_0" index="0" speed="25.00" length="0.10" width="5.00" shape="-600.00,-7.50 -600.00,-7.50"/>
        <lane id=":gneJ5_0_1" index="1" speed="25.00" length="0.10" width="5.00" shape="-600.00,-2.50 -600.00,-2.50"/>
    </edge>
    <edge id=":gneJ6_0" function="internal">
        <lane id=":gneJ6_0_0" index="0" speed="25.00" length="4.28" width="5.00" shape="-18.54,-13.58 -17.44,-12.97 -16.62,-12.65 -15.76,-12.52 -14.49,-12.50"/>
    </edge>
    <edge id=":gneJ6_1" function="internal">
        <lane id=":gneJ6_1_0" index="0" speed="25.00" length="4.34" width="5.00" shape="-18.83,-7.50 -14.49,-7.50"/>
        <lane id=":gneJ6_1_1" index="1" speed="25.00" length="4.34" width="5.00" shape="-18.83,-2.50 -14.49,-2.50"/>
    </edge>
    <edge id=":gneJ7_0" function="internal">
        <lane id=":gneJ7_0_0" index="0" speed="25.00" length="8.00" width="5.00" shape="196.00,-7.50 204.00,-7.50"/>
        <lane id=":gneJ7_0_1" index="1" speed="25.00" length="8.00" width="5.00" shape="196.00,-2.50 204.00,-2.50"/>
    </edge>

    <edge id="Converge" from="gneJ7" to="gneJ8" priority="-1">
        <lane id="Converge_0" index="0" speed="20.00" length="96.00" width="5.00" shape="204.00,-7.50 300.00,-7.50"/>
        <lane id="Converge_1" index="1" speed="25.00" length="96.00" width="5.00" shape="204.00,-2.50 300.00,-2.50"/>
    </edge>
    <edge id="Main" from="gneJ5" to="gneJ6" priority="8">
        <lane id="Main_0" index="0" speed="20.00" length="581.17" width="5.00" shape="-600.00,-7.50 -18.83,-7.50"/>
        <lane id="Main_1" index="1" speed="25.00" length="581.17" width="5.00" shape="-600.00,-2.50 -18.83,-2.50"/>
    </edge>
    <edge id="Main_start" from="J0" to="gneJ5" priority="-1">
        <lane id="Main_start_0" index="0" speed="20.00" length="400.00" width="5.00" shape="-1000.00,-7.50 -600.00,-7.50"/>
        <lane id="Main_start_1" index="1" speed="25.00" length="400.00" width="5.00" shape="-1000.00,-2.50 -600.00,-2.50"/>
    </edge>
    <edge id="Merge" from="gneJ6" to="gneJ7" priority="-1">
        <lane id="Merge_0" index="0" speed="20.00" length="210.49" width="5.00" acceleration="1" shape="-14.49,-12.50 196.00,-12.50"/>
        <lane id="Merge_1" index="1" speed="20.00" length="210.49" width="5.00" shape="-14.49,-7.50 196.00,-7.50"/>
        <lane id="Merge_2" index="2" speed="25.00" length="210.49" width="5.00" shape="-14.49,-2.50 196.00,-2.50"/>
    </edge>
    <edge id="Ramp" from="J3" to="gneJ6" priority="4">
        <lane id="Ramp_0" index="0" speed="20.00" length="127.23" width="5.00" shape="-128.75,-77.17 -18.54,-13.58"/>
    </edge>
    <edge id="Ramp_limited" from="J4" to="J3" priority="-1">
        <lane id="Ramp_limited_0" index="0" speed="10.00" length="349.91" width="5.00" shape="-431.75,-252.16 -128.75,-77.16"/>
    </edge>
    <edge id="Ramp_start" from="J1" to="J4" priority="-1">
        <lane id="Ramp_start_0" index="0" speed="10.00" length="300.17" width="5.00" shape="-691.75,-402.17 -431.75,-252.17"/>
    </edge>

    <junction id="J0" type="dead_end" x="-1000.00" y="0.00" incLanes="" intLanes="" shape="-1000.00,0.00 -1000.00,-10.00"/>
    <junction id="J1" type="dead_end" x="-693.00" y="-400.00" incLanes="" intLanes="" shape="-693.00,-400.00 -690.50,-404.33"/>
    <junction id="J3" type="priority" x="-130.00" y="-75.00" incLanes="Ramp_limited_0" intLanes=":J3_0_0" shape="-130.00,-75.00 -127.50,-79.33 -130.00,-75.00">
        <request index="0" response="0" foes="0" cont="0"/>
    </junction>
    <junction id="J4" type="priority" x="-433.00" y="-250.00" incLanes="Ramp_start_0" intLanes=":J4_0_0" shape="-433.00,-250.00 -430.50,-254.33 -433.00,-250.00">
        <request index="0" response="0" foes="0" cont="0"/>
    </junction>
    <junction id="gneJ5" type="priority" x="-600.00" y="0.00" incLanes="Main_start_0 Main_start_1" intLanes=":gneJ5_0_0 :gneJ5_0_1" shape="-600.00,0.00 -600.00,-10.00 -600.00,0.00">
        <request index="0" response="00" foes="00" cont="0"/>
        <request index="1" response="00" foes="00" cont="0"/>
    </junction>
    <junction id="gneJ6" type="priority" x="0.00" y="0.00" incLanes="Ramp_0 Main_0 Main_1" intLanes=":gneJ6_0_0 :gneJ6_1_0 :gneJ6_1_1" shape="-14.49,0.00 -14.49,-15.00 -15.59,-15.03 -15.97,-15.10 -16.33,-15.23 -16.75,-15.44 -17.29,-15.75 -19.79,-11.42 -18.59,-10.63 -18.32,-10.35 -18.27,-10.16 -18.44,-10.04 -18.83,-10.00 -18.83,0.00">
        <request index="0" response="000" foes="000" cont="0"/>
        <request index="1" response="000" foes="000" cont="0"/>
        <request index="2" response="000" foes="000" cont="0"/>
    </junction>
    <junction id="gneJ7" type="priority" x="200.00" y="0.00" incLanes="Merge_0 Merge_1 Merge_2" intLanes=":gneJ7_0_0 :gneJ7_0_1" shape="204.00,0.00 204.00,-10.00 200.88,-11.30 199.12,-13.70 197.90,-14.63 196.00,-15.00 196.00,0.00">
        <request index="0" response="00" foes="00" cont="0"/>
        <request index="1" response="00" foes="00" cont="0"/>
    </junction>
    <junction id="gneJ8" type="dead_end" x="300.00" y="0.00" incLanes="Converge_0 Converge_1" intLanes="" shape="300.00,-10.00 300.00,0.00"/>

    <connection from="Main" to="Merge" fromLane="0" toLane="1" via=":gneJ6_1_0" dir="s" state="M"/>
    <connection from="Main" to="Merge" fromLane="1" toLane="2" via=":gneJ6_1_1" dir="s" state="M"/>
    <connection from="Main_start" to="Main" fromLane="0" toLane="0" via=":gneJ5_0_0" dir="s" state="M"/>
    <connection from="Main_start" to="Main" fromLane="1" toLane="1" via=":gneJ5_0_1" dir="s" state="M"/>
    <connection from="Merge" to="Converge" fromLane="1" toLane="0" via=":gneJ7_0_0" dir="s" state="M"/>
    <connection from="Merge" to="Converge" fromLane="2" toLane="1" via=":gneJ7_0_1" dir="s" state="M"/>
    <connection from="Ramp" to="Merge" fromLane="0" toLane="0" via=":gneJ6_0_0" dir="s" state="M"/>
    <connection from="Ramp_limited" to="Ramp" fromLane="0" toLane="0" via=":J3_0_0" dir="s" state="M"/>
    <connection from="Ramp_start" to="Ramp_limited" fromLane="0" toLane="0" via=":J4_0_0" dir="s" state="M"/>

    <connection from=":J3_0" to="Ramp" fromLane="0" toLane="0" dir="s" state="M"/>
    <connection from=":J4_0" to="Ramp_limited" fromLane="0" toLane="0" dir="s" state="M"/>
    <connection from=":gneJ5_0" to="Main" fromLane="0" toLane="0" dir="s" state="M"/>
    <connection from=":gneJ5_0" to="Main" fromLane="1" toLane="1" dir="s" state="M"/>
    <connection from=":gneJ6_0" to="Merge" fromLane="0" toLane="0" dir="s" state="M"/>
    <connection from=":gneJ6_1" to="Merge" fromLane="0" toLane="1" dir="s" state="M"/>
    <connection from=":gneJ6_1" to="Merge" fromLane="1" toLane="2" dir="s" state="M"/>
    <connection from=":gneJ7_0" to="Converge" fromLane="0" toLane="0" dir="s" state="M"/>
    <connection from=":gneJ7_0" to="Converge" fromLane="1" toLane="1" dir="s" state="M"/>

</net>
