<?xml version="1.0" encoding="UTF-8"?>

<!-- generated on 2022-06-24 10:05:24 by Eclipse SUMO netedit Version 1.11.0
-->

<routes xmlns:xsi="http://www.w3.org/2001/XMLSchema-instance" xsi:noNamespaceSchemaLocation="http://sumo.dlr.de/xsd/routes_file.xsd">
    <route edges="Main_start Main Merge Converge" color="yellow" id="Main"/>
    <route edges="Ramp_start Ramp_limited Ramp Merge Converge" color="yellow" id="Ramp"/>

    <vType id="CAV" accel="2" decel="3.0" length="5.0" minGap="4" maxSpeed="25.01"
           carFollowModel="IDM" tau="0.5" sigma="0" jerkmax="0.2"/>
    <vType id="HDV" accel="2" decel="3.0" length="5.0" minGap="4" maxSpeed="25.01"
           carFollowModel="IDM" tau="0.6" sigma="0" jerkmax="0.2"/>
</routes>

